data_mode_3_phase_
_space_group_IT_number 1
_symmetry_space_group_name_H-M 'P 1'
_symmetry_Int_Tables_number        1  
_cell_length_a          6.030466
_cell_length_b         12.120618
_cell_length_c          5.814567
_cell_angle_alpha      90.000000
_cell_angle_beta       90.000000
_cell_angle_gamma      90.000000
_cell_volume          425.003981
loop_
_atom_site_label
_atom_site_type_symbol
_atom_site_fract_x
_atom_site_fract_y
_atom_site_fract_z
O1 O     0.732177     0.084932     0.635674
C2 C     0.559474     0.140806     0.611953
O3 O     0.446777     0.183219     0.773523
C4 C     0.470976     0.161165     0.369066
N5 N     0.646528     0.140111     0.195698
C6 C     0.269467     0.090477     0.318582
H7 H     0.428156     0.247882     0.354099
H8 H     0.201468     0.111097     0.151249
H9 H     0.141850     0.104035     0.446714
H10 H     0.312006     0.003441     0.319469
H11 H     0.706256     0.060847     0.206511
H12 H     0.774247     0.195896     0.218173
H13 H     0.582229     0.151510     0.030708
O14 O     0.767823     0.915068     1.135674
C15 C     0.940526     0.859194     1.111953
O16 O     1.053223     0.816781     1.273523
C17 C     1.029024     0.838835     0.869066
N18 N     0.853472     0.859889     0.695698
C19 C     1.230533     0.909523     0.818582
H20 H     1.071844     0.752118     0.854099
H21 H     1.298532     0.888903     0.651249
H22 H     1.358150     0.895965     0.946714
H23 H     1.187994     0.996559     0.819469
H24 H     0.793744     0.939153     0.706511
H25 H     0.725753     0.804104     0.718173
H26 H     0.917771     0.848490     0.530708
O27 O     0.232177     0.415068     0.364326
C28 C     0.059474     0.359194     0.388047
O29 O    -0.053223     0.316781     0.226477
C30 C    -0.029024     0.338835     0.630934
N31 N     0.146528     0.359889     0.804302
C32 C    -0.230533     0.409523     0.681418
H33 H    -0.071844     0.252118     0.645901
H34 H    -0.298532     0.388903     0.848751
H35 H    -0.358150     0.395965     0.553286
H36 H    -0.187994     0.496559     0.680531
H37 H     0.206256     0.439153     0.793489
H38 H     0.274247     0.304104     0.781827
H39 H     0.082229     0.348490     0.969292
O40 O     0.267823     0.584932    -0.135674
C41 C     0.440526     0.640806    -0.111953
O42 O     0.553223     0.683219    -0.273523
C43 C     0.529024     0.661165     0.130934
N44 N     0.353472     0.640111     0.304302
C45 C     0.730533     0.590477     0.181418
H46 H     0.571844     0.747882     0.145901
H47 H     0.798532     0.611097     0.348751
H48 H     0.858150     0.604035     0.053286
H49 H     0.687994     0.503441     0.180531
H50 H     0.293744     0.560847     0.293489
H51 H     0.225753     0.695896     0.281827
H52 H     0.417771     0.651510     0.469292
 
#END
