_data_a_quartz
_space_group_IT_number 1
_symmetry_space_group_name_H-M 'P 1'
_symmetry_Int_Tables_number        1  
_cell_length_a          5.027782
_cell_length_b          5.027782
_cell_length_c          5.518918
_cell_angle_alpha      90.000000
_cell_angle_beta       90.000000
_cell_angle_gamma     120.000000
_cell_volume          120.819615
loop_
_atom_site_label
_atom_site_type_symbol
_atom_site_fract_x
_atom_site_fract_y
_atom_site_fract_z
Si1 Si     0.000000     0.477290     0.333333
O2 O     0.160740     0.745703     0.537334
O3 O     0.254297     0.415037     0.204000
O4 O    -0.254297     0.160740     0.462666
O5 O    -0.160740     0.584963     0.129333
Si6 Si     0.477290     1.000000     0.666667
Si7 Si     0.522710     0.522710    -0.000000
O8 O     0.584963     0.839260     0.870667
O9 O     0.415037     1.254297     0.796000
 
#END
