
#######################################################################
#
#                 Cambridge Crystallographic Data Centre
#                                CCDC 
#
#######################################################################
#
# If this CIF has been generated directly or indirectly from an entry in the 
# Cambridge Structural Database, then it will include bibliographic, chemical, 
# crystal, experimental, refinement or atomic coordinate data resulting from 
# the CCDC's data processing and validation procedures. Files generated from 
# CSD entries are Copyright 2015 Cambridge Crystallographic Data Centre. They 
# may be used in bona fide research applications only, and may not be copied or 
# further disseminated in any form, whether machine-readable or not, except for 
# the purposes of generating routine backup copies on your local computer 
# system.
# 
# Files arising from any other source may also contain material that is the 
# copyright of third parties, including the originator, and you should check 
# with the originator concerning the permitted uses of the information 
# contained in this CIF.
#
# For further information on the CCDC and the free tools enCIFer and Mercury
# for validating and visualising CIF files, please visit www.ccdc.cam.ac.uk
#
#######################################################################

data_Ca5P3O12F
_symmetry_cell_setting           hexagonal
_symmetry_space_group_name_H-M   'P 63/m'
_symmetry_Int_Tables_number      176
loop_
_symmetry_equiv_pos_site_id
_symmetry_equiv_pos_as_xyz
1 x,y,z
2 -x,-y,1/2+z
3 -y,x-y,z
4 -x+y,-x,z
5 x-y,x,1/2+z
6 y,-x+y,1/2+z
7 -x,-y,-z
8 x,y,1/2-z
9 y,-x+y,-z
10 x-y,x,-z
11 -x+y,-x,1/2-z
12 -y,x-y,1/2-z
_cell_length_a                   9.44664403
_cell_length_b                   9.44664403
_cell_length_c                   6.92579265
_cell_angle_alpha                90.00000000
_cell_angle_beta                 90.00000000
_cell_angle_gamma                120.00000000
_cell_volume                     535.248
loop_
_atom_site_label
_atom_site_type_symbol
_atom_site_fract_x
_atom_site_fract_y
_atom_site_fract_z
Ca1 Ca 0.333333 0.666667 0.000805
P3 P 0.397682 0.368418 0.250000
O4 O 0.326397 0.484735 0.250000
O5 O 0.588343 0.466458 0.250000
O6 O 0.340609 0.255788 0.069686
O6 O 0.340609 0.255788 0.430314
Ca2 Ca 0.243363 -0.003740 0.250000
F7 F 0.000000 0.000000 0.250000
P3 P -0.368418 0.029264 0.250000
O4 O -0.484735 -0.158338 0.250000
O5 O -0.466458 0.121885 0.250000
O6 O -0.255788 0.084821 0.069686
O6 O -0.255788 0.084821 0.430314
Ca2 Ca 0.003740 0.247103 0.250000
P3 P -0.029264 -0.397682 0.250000
O4 O 0.158338 -0.326397 0.250000
O5 O -0.121885 -0.588343 0.250000
O6 O -0.084821 -0.340609 0.069686
O6 O -0.084821 -0.340609 0.430314
Ca2 Ca -0.247103 -0.243363 0.250000
Ca1 Ca -0.333333 -0.666667 -0.000805
Ca1 Ca -0.666667 -0.333333 0.000805
Ca1 Ca 0.333333 -0.333333 0.000805
Ca1 Ca -0.333333 -0.666667 0.500805
Ca1 Ca -0.333333 0.333333 0.500805
Ca1 Ca 0.666667 0.333333 0.500805
Ca1 Ca -0.333333 0.333333 -0.000805
Ca1 Ca 0.666667 0.333333 -0.000805
Ca1 Ca -0.666667 -0.333333 0.499195
Ca1 Ca 0.333333 -0.333333 0.499195
Ca1 Ca 0.333333 0.666667 0.499195
O4 O -0.326397 -0.484735 -0.250000
O4 O 0.515265 0.841662 0.250000
O4 O 0.158338 0.673603 0.250000
O4 O -0.158338 -0.673603 -0.250000
O4 O -0.515265 -0.841662 -0.250000
O5 O -0.411657 -0.533542 0.250000
O5 O 0.411657 0.533542 -0.250000
O5 O -0.466458 -0.878115 0.250000
O5 O 0.533542 0.121885 0.250000
O5 O -0.121885 0.411657 0.250000
O5 O 0.121885 0.588343 -0.250000
O5 O 0.466458 0.878115 -0.250000
O6 O -0.659391 -0.744212 0.069686
O6 O -0.340609 -0.255788 0.569686
O6 O -0.255788 -0.915179 0.069686
O6 O 0.084821 0.340609 0.569686
O6 O 0.255788 -0.084821 0.569686
O6 O -0.340609 -0.255788 -0.069686
O6 O 0.659391 0.744212 -0.069686
O6 O 0.255788 -0.084821 -0.069686
O6 O 0.255788 0.915179 -0.069686
O6 O 0.084821 0.340609 -0.069686
Ca2 Ca -0.756637 -0.003740 0.250000
Ca2 Ca -0.243363 0.003740 -0.250000
Ca2 Ca -0.243363 0.003740 0.750000
Ca2 Ca 0.003740 -0.752897 0.250000
Ca2 Ca 0.752897 0.756637 0.250000
Ca2 Ca 0.247103 0.243363 -0.250000
Ca2 Ca 0.247103 0.243363 0.750000
Ca2 Ca -0.003740 -0.247103 -0.250000
Ca2 Ca -0.003740 -0.247103 0.750000

#END
